Version 4
SHEET 1 880 680
WIRE 112 16 48 16
WIRE 112 32 112 16
WIRE 160 208 160 112
WIRE 288 208 160 208
WIRE 48 224 48 16
WIRE 48 224 -32 224
WIRE 288 224 48 224
WIRE 112 240 112 112
WIRE 112 240 -32 240
WIRE 288 240 112 240
WIRE 80 256 80 112
WIRE 80 256 -32 256
WIRE 64 272 64 112
WIRE 64 272 -32 272
SYMBOL arduinosketch 176 64 R0
SYMATTR InstName X1
SYMBOL hc05sketch -80 272 R90
SYMATTR InstName X2
SYMBOL servosketch 320 208 R270
SYMATTR InstName X3
TEXT 176 56 Left 1 ;V in to Arduino from mini USB
TEXT 144 88 Left 0 ;Arduino nano
TEXT -176 264 Left 0 ;HC-05 Bluetooth module
TEXT 296 224 Left 0 ;servo motor
